tests/examples/dynamic_example/case_study/savnw.seq
@!!IC, REV
0,     34           / PSS(R)E-34.0    MON, MAR 09 2015  17:06
RPTFORMAT, AMPOUT=0, POLROU=0, AMPOUTZ=0, POLROUZ=0
MOV, ITERATIONS=20, TOLERANCE=0.01, MOVALPHA=0.3
SCMODEL, SCNRML=1
0 / END OF SYSTEM-WIDE DATA, BEGIN GENERATOR DATA
@!!  I,'ID',       ZRPOS,      ZXPPDV,       ZXPDV,       ZXSDV,       ZRNEG,     ZXNEGDV,         ZR0,       ZX0DV,CZG,       ZRG,         ZXG, REFDEG
   101,'1 ', 1.00000E-02, 3.00000E-01, 6.00000E-01, 1.80000E+00, 1.00000E-02, 3.00000E-01, 0.00000E+00, 6.00000E-02,1, 8.00000E+03, 0.00000E+00,  0.000
   102,'1 ', 1.00000E-02, 3.00000E-01, 6.00000E-01, 1.80000E+00, 1.00000E-02, 3.00000E-01, 0.00000E+00, 6.00000E-02,1, 8.00000E+03, 0.00000E+00,  0.000
   206,'1 ', 1.00000E-02, 2.50000E-01, 5.00000E-01, 1.40000E+00, 1.00000E-02, 2.50000E-01, 0.00000E+00, 5.00000E-02,1, 1.20000E+04, 0.00000E+00,  0.000
   211,'1 ', 1.00000E-02, 2.60000E-01, 4.00000E-01, 1.00000E+00, 1.00000E-02, 2.60000E-01, 0.00000E+00, 4.00000E-02,1, 7.00000E+03, 0.00000E+00,  0.000
  3011,'1 ', 1.00000E-02, 3.50000E-01, 7.00000E-01, 1.60000E+00, 1.00000E-02, 3.50000E-01, 0.00000E+00, 7.00000E-02,1, 1.40000E+04, 0.00000E+00,  0.000
  3018,'1 ', 1.00000E-02, 3.50000E-01, 7.00000E-01, 1.60000E+00, 1.00000E-02, 3.50000E-01, 0.00000E+00, 7.00000E-02,1, 2.00000E+03, 0.00000E+00,  0.000
0  / END OF GENERATOR DATA, BEGIN LOAD DATA
@!!  I,'ID',        PNEG,        QNEG,GRDFLG,  PZERO,       QZERO
0  / END OF LOAD DATA, BEGIN ZERO SEQ. NON-TRANSFORMER BRANCH DATA
@!!  I,     J,'ICKT',    RLINZ,      XLINZ,       BCHZ,         GI,         BI,         GJ,         BJ,        IPR,SCTYP
   151,   152,'1 ', 7.00000E-3, 1.20000E-1,    3.34000, 0.00000E+0, 0.00000E+0, 0.00000E+0, 0.00000E+0, 0.00000E+0,0
   151,   152,'2 ', 7.00000E-3, 1.20000E-1,    3.34000, 0.00000E+0, 0.00000E+0, 0.00000E+0, 0.00000E+0, 0.00000E+0,0
   151,   201,'1 ', 3.00000E-3, 4.50000E-2,    1.00000, 0.00000E+0, 0.00000E+0, 0.00000E+0, 0.00000E+0, 0.00000E+0,0
   152,   202,'1 ', 2.50000E-3, 3.00000E-2,    0.90000, 0.00000E+0, 0.00000E+0, 0.00000E+0, 0.00000E+0, 0.00000E+0,0
   152,  3004,'1 ', 8.00000E-3, 8.00000E-2,    2.20000, 0.00000E+0, 0.00000E+0, 0.00000E+0, 0.00000E+0, 0.00000E+0,0
   153,   154,'1 ', 1.50000E-2, 1.30000E-1,    0.06000, 0.00000E+0, 0.00000E+0, 0.00000E+0, 0.00000E+0, 0.00000E+0,0
   153,   154,'2 ', 1.80000E-2, 1.60000E-1,    0.11000, 0.00000E+0, 0.00000E+0, 0.00000E+0, 0.00000E+0, 0.00000E+0,0
   153,  3006,'1 ', 3.00000E-3, 3.50000E-2,    0.02000, 0.00000E+0, 0.00000E+0, 0.00000E+0, 0.00000E+0, 0.00000E+0,0
   154,   203,'1 ', 1.00000E-2, 1.00000E-1,    0.09000, 0.00000E+0, 0.00000E+0, 0.00000E+0, 0.00000E+0, 0.00000E+0,0
   154,   205,'1 ', 1.00000E-3, 1.00000E-2,    0.08000, 0.00000E+0, 0.00000E+0, 0.00000E+0, 0.00000E+0, 0.00000E+0,0
   154,  3008,'1 ', 8.00000E-3, 6.50000E-2,    0.22000, 0.00000E+0, 0.00000E+0, 0.00000E+0, 0.00000E+0, 0.00000E+0,0
   201,   202,'1 ', 5.00000E-3, 7.00000E-2,    1.70000, 0.00000E+0, 0.00000E+0, 0.00000E+0, 0.00000E+0, 0.00000E+0,0
   201,   204,'1 ', 8.00000E-3, 8.00000E-2,    2.30000, 0.00000E+0, 0.00000E+0, 0.00000E+0, 0.00000E+0, 0.00000E+0,0
   203,   205,'1 ', 1.50000E-2, 1.30000E-1,    0.06000, 0.00000E+0, 0.00000E+0, 0.00000E+0, 0.00000E+0, 0.00000E+0,0
   203,   205,'2 ', 1.50000E-2, 1.30000E-1,    0.06000, 0.00000E+0, 0.00000E+0, 0.00000E+0, 0.00000E+0, 0.00000E+0,0
  3001,  3003,'1 ',-0.00000E+0, 8.00000E-3,    0.00000, 0.00000E+0, 0.00000E+0, 0.00000E+0, 0.00000E+0, 0.00000E+0,0
  3002,  3004,'1 ', 1.60000E-2, 1.60000E-1,    0.07000, 0.00000E+0, 0.00000E+0, 0.00000E+0, 0.00000E+0, 0.00000E+0,0
  3003,  3005,'1 ', 1.60000E-2, 1.60000E-1,    0.07000, 0.00000E+0, 0.00000E+0, 0.00000E+0, 0.00000E+0, 0.00000E+0,0
  3003,  3005,'2 ', 1.60000E-2, 1.60000E-1,    0.07000, 0.00000E+0, 0.00000E+0, 0.00000E+0, 0.00000E+0, 0.00000E+0,0
  3005,  3006,'1 ', 8.00000E-3, 8.00000E-2,    0.06000, 0.00000E+0, 0.00000E+0, 0.00000E+0, 0.00000E+0, 0.00000E+0,0
  3005,  3007,'1 ', 7.00000E-3, 7.50000E-2,    0.05500, 0.00000E+0, 0.00000E+0, 0.00000E+0, 0.00000E+0, 0.00000E+0,0
  3005,  3008,'1 ', 1.40000E-2, 1.50000E-1,    0.10000, 0.00000E+0, 0.00000E+0, 0.00000E+0, 0.00000E+0, 0.00000E+0,0
  3007,  3008,'1 ', 7.00000E-3, 7.00000E-2,    0.05500, 0.00000E+0, 0.00000E+0, 0.00000E+0, 0.00000E+0, 0.00000E+0,0
0  / END OF ZERO SEQ. NON-TRANSFORMER BRANCH DATA, BEGIN ZERO SEQ. MUTUAL DATA
@!!  I,     J,'ICKT1',  K,     L,'ICKT2',      RM,         XM,    BIJ1,    BIJ2,    BKL1,    BKL2
   151,   152,'1 ',   151,   152,'2 ', 2.00000E-3, 2.00000E-2, 0.00000, 1.00000, 0.00000, 1.00000
   153,   154,'1 ',   153,   154,'2 ', 3.00000E-3, 2.50000E-2, 0.00000, 1.00000, 0.00000, 1.00000
   203,   205,'1 ',   203,   205,'2 ', 2.00000E-3, 2.00000E-2, 0.00000, 1.00000, 0.00000, 1.00000
  3003,  3005,'1 ',  3003,  3005,'2 ', 2.50000E-3, 2.50000E-2, 0.00000, 1.00000, 0.00000, 1.00000
   154,   203,'1 ',   203,   205,'1 ',-1.00000E-3,-1.00000E-2, 0.70000, 1.00000, 0.00000, 0.35000
   154,   203,'1 ',   203,   205,'2 ',-1.00000E-3,-1.00000E-2, 0.70000, 1.00000, 0.00000, 0.35000
0  / END OF ZERO SEQ. MUTUAL DATA, BEGIN ZERO SEQ. TRANSFORMER DATA
@!!  I,     J,     K,'ICKT',CZ0,CZG,CC,   RG1,        XG1,        R01,        X01,        RG2,        XG2,        R02,        X02,     RNUTRL,     XNUTRL
@!!  I,     J,     K,'ICKT',CZ0,CZG,CC,   RG1,        XG1,        R01,        X01,        RG2,        XG2,        R02,        X02,        RG3,        XG3,        R03,        X03,     RNUTRL,     XNUTRL
   151,   101,     0,'1 ',1,1,  2, 0.00000E+0, 0.00000E+0, 3.00000E-4, 1.36000E-2, 0.00000E+0, 0.00000E+0, 0.00000E+0, 0.00000E+0, 0.00000E+0, 0.00000E+0
   151,   102,     0,'1 ',1,1,  2, 0.00000E+0, 0.00000E+0, 3.00000E-4, 1.36000E-2, 0.00000E+0, 0.00000E+0, 0.00000E+0, 0.00000E+0, 0.00000E+0, 0.00000E+0
   152,   153,     0,'1 ',1,1,  1, 0.00000E+0, 0.00000E+0, 0.00000E+0, 5.00000E-3, 0.00000E+0, 0.00000E+0, 0.00000E+0, 0.00000E+0, 0.00000E+0, 0.00000E+0
   201,   211,     0,'1 ',1,1,  2, 0.00000E+0, 0.00000E+0, 7.00000E-4, 2.13000E-2, 0.00000E+0, 0.00000E+0, 0.00000E+0, 0.00000E+0, 0.00000E+0, 0.00000E+0
   202,   203,     0,'1 ',1,1,  1, 0.00000E+0, 0.00000E+0, 4.00000E-4, 1.63000E-2, 0.00000E+0, 0.00000E+0, 0.00000E+0, 0.00000E+0, 0.00000E+0, 0.00000E+0
   204,   205,     0,'1 ',1,1,  1, 0.00000E+0, 0.00000E+0, 3.00000E-4, 1.50000E-2, 0.00000E+0, 0.00000E+0, 0.00000E+0, 0.00000E+0, 0.00000E+0, 0.00000E+0
   205,   206,     0,'1 ',1,1,  2, 0.00000E+0, 0.00000E+0, 3.00000E-4, 1.33000E-2, 0.00000E+0, 0.00000E+0, 0.00000E+0, 0.00000E+0, 0.00000E+0, 0.00000E+0
  3001,  3002,     0,'1 ',1,1,  1, 0.00000E+0, 0.00000E+0, 3.00000E-4, 1.50000E-2, 0.00000E+0, 0.00000E+0, 0.00000E+0, 0.00000E+0, 0.00000E+0, 0.00000E+0
  3001,  3011,     0,'1 ',1,1,  2, 0.00000E+0, 0.00000E+0, 2.00000E-4, 1.00000E-2, 0.00000E+0, 0.00000E+0, 0.00000E+0, 0.00000E+0, 0.00000E+0, 0.00000E+0
  3004,  3005,     0,'1 ',1,1,  1, 0.00000E+0, 0.00000E+0, 4.00000E-4, 1.63000E-2, 0.00000E+0, 0.00000E+0, 0.00000E+0, 0.00000E+0, 0.00000E+0, 0.00000E+0
  3008,  3018,     0,'1 ',1,1,  2, 0.00000E+0, 0.00000E+0, 2.00000E-4, 8.50000E-2, 0.00000E+0, 0.00000E+0, 0.00000E+0, 0.00000E+0, 0.00000E+0, 0.00000E+0
0  / END OF ZERO SEQ. TRANSFORMER DATA, BEGIN ZERO SEQ. SWITCHED SHUNT DATA
@!!  I,       BZ1,       BZ2,       BZ3,       BZ4,       BZ5,       BZ6,       BZ7,       BZ8
0  / END OF ZERO SEQ. SWITCHED SHUNT DATA, BEGIN ZERO SEQ. FIXED SHUNT DATA
@!!  I,'ID',      GSZERO,      BSZERO
0  / END OF ZERO SEQ. FIXED SHUNT DATA, BEGIN INDUCTION MACHINE DATA
@!!  I,'ID',CZG,GRDFLG,ILR2IR,       RTOX,         ZR0,         ZX0,         ZRG,         ZXG,  ILR2IR_TRN,    RTOX_TRN,  ILR2IR_NEG,    RTOX_NEG
0  / END OF INDUCTION MACHINE DATA, BEGIN NON CONVENTIONAL SOURCE FAULT CONTRIBUTION DATA
@!!  I,'ID',      T1,     C1P,     C1Q,      T2,     C2P,     C2Q,      T3,     C3P,     C3Q,      T4,     C4P,     C4Q,      T5,     C5P,     C5Q,      T6,     C6P,     C6Q
0  / END OF NON CONVENTIONAL SOURCE FAULT CONTRIBUTION DATA
Q
